test/resources/extensions/cvg/loadDetail.xml
<?xml version="1.0" encoding="UTF-8"?>
<iidm:network xmlns:iidm="http://www.itesla_project.eu/schema/iidm/1_0" xmlns:ld="http://www.itesla_project.eu/schema/iidm/ext/load_detail/1_0" id="test" caseDate="2013-01-15T18:45:00+01:00" forecastDistance="0" sourceFormat="test">
    <iidm:substation id="S1" name="S1_NAME" country="FR" tso="TSO">
        <iidm:voltageLevel id="VL1" name="VL1_NAME" nominalV="380" lowVoltageLimit="340" highVoltageLimit="420" topologyKind="BUS_BREAKER">
            <iidm:busBreakerTopology>
                <iidm:bus id="VL1_BUS1"/>
            </iidm:busBreakerTopology>
            <iidm:load id="LOAD1" name="LOAD1_NAME" loadType="UNDEFINED" p0="50" q0="40" bus="VL1_BUS1" connectableBus="VL1_BUS1"/>
        </iidm:voltageLevel>
        <iidm:voltageLevel id="VL2" name="VL2_NAME" nominalV="225" lowVoltageLimit="200" highVoltageLimit="260" topologyKind="NODE_BREAKER">
            <iidm:nodeBreakerTopology nodeCount="0"/>
        </iidm:voltageLevel>
    </iidm:substation>
    <iidm:extension id="LOAD1">
        <ld:detail fixedActivePower="0.10000000000000001" fixedReactivePower="0.20000000000000001" variableActivePower="0.29999999999999999" variableReactivePower="0.40000000000000002"/>
    </iidm:extension>
</iidm:network>
